Circuit: * C:\Users\pahar\OneDrive - IIIT Hyderabad\24-25 spring\Electronic Workshop - 2\Project-2\OpAmp_Design\amplifier.asc

Warning: Multiple definitions of model "2scr375p" Type: BJT
Warning: Multiple definitions of model "bc857b" Type: BJT
Warning: Multiple definitions of model "bc847c" Type: BJT
Warning: Multiple definitions of model "bc847b" Type: BJT
Direct Newton iteration for .op point succeeded.

Date: Tue Mar 18 11:32:27 2025
Total elapsed time: 0.262 seconds.

tnom = 27
temp = 27
method = modified trap
totiter = 2092
traniter = 2082
tranpoints = 1042
accept = 1042
rejected = 0
matrix size = 47
fillins = 32
solver = Normal
Avg thread counts: 1.3/1.6/1.6/1.3
Matrix Compiler1: 4.99 KB object code size  2.0/1.4/[0.8]
Matrix Compiler2: off  [0.8]/1.3/0.9

